<?xml version="1.0" encoding="UTF-8"?>

<!-- generated on 2025-07-08 00:20:19 by Eclipse SUMO sumo Version 1.21.0
-->

<sumoConfiguration xmlns:xsi="http://www.w3.org/2001/XMLSchema-instance" xsi:noNamespaceSchemaLocation="http://sumo.dlr.de/xsd/sumoConfiguration.xsd">

    <input>
        <net-file value="network/network_rl.net.xml"/>
        <route-files value="simulation_run_rl.rou.xml"/>
        <additional-files value="simulation_run_rl.add.xml"/>
    </input>

</sumoConfiguration>
