<?xml version="1.0" encoding="UTF-8"?>

<!-- generated on 2025-07-24 15:50:29 by Eclipse SUMO netedit Version 1.21.0
-->

<routes xmlns:xsi="http://www.w3.org/2001/XMLSchema-instance" xsi:noNamespaceSchemaLocation="http://sumo.dlr.de/xsd/routes_file.xsd">
    <!-- Vehicles, persons and containers (sorted by depart) -->
    <flow id="f_0" begin="0.00" from="Node4_5_EB" to="Node1_2_WB" via="-E39 -E38 Node2_3_WB" end="3600.00" vehsPerHour="3600"/>
    <flow id="f_1" begin="0.00" from="Node2_7_SB" to="-E35" via="Node2_5_SB Node4_5_WB" end="3600.00" vehsPerHour="3600"/>
    <flow id="f_2" begin="0.00" from="Node1_2_EB" to="Node4_5_WB" via="E38 E39" end="3600.00" vehsPerHour="3600"/>
    <flow id="f_3" begin="0.00" from="E38" to="Node2_7_NB" via="E39 Node2_5_NB" end="3600.00" vehsPerHour="3600"/>
    <flow id="f_4" begin="0.00" from="Node1_2_WB" to="Node2_7_NB" via="E35 -E38 Node2_3_WB" end="3600.00" vehsPerHour="3600"/>
</routes>
