<?xml version="1.0" encoding="UTF-8"?>

<!-- generated on 2025-07-15 08:43:04 by Eclipse SUMO netedit Version 1.21.0
<neteditConfiguration xmlns:xsi="http://www.w3.org/2001/XMLSchema-instance" xsi:noNamespaceSchemaLocation="http://sumo.dlr.de/xsd/neteditConfiguration.xsd">

    <input>
        <additional-files value="C:\Users\iamth\OneDrive\Desktop\Research\SUMO\Saratoga\simulation_run_rl.add.xml"/>
        <route-files value="C:\Users\iamth\OneDrive\Desktop\Research\SUMO\Saratoga\simulation_run_rl.rou.xml"/>
        <sumo-net-file value="C:\Users\iamth\OneDrive\Desktop\Research\SUMO\Saratoga\network\network_rl.net.xml"/>
    </input>

    <output>
        <output-file value="C:\Users\iamth\OneDrive\Desktop\Research\SUMO\Saratoga\network\network_rl.net.xml"/>
    </output>

    <processing>
        <geometry.min-radius.fix.railways value="false"/>
        <geometry.max-grade.fix value="false"/>
        <offset.disable-normalization value="true"/>
        <lefthand value="0"/>
    </processing>

    <junctions>
        <no-turnarounds value="true"/>
        <junctions.corner-detail value="5"/>
        <junctions.limit-turn-speed value="5.50"/>
        <rectangular-lane-cut value="0"/>
    </junctions>

    <pedestrian>
        <walkingareas value="0"/>
    </pedestrian>

</neteditConfiguration>
-->

<net version="1.20" junctionCornerDetail="5" limitTurnSpeed="5.50" xmlns:xsi="http://www.w3.org/2001/XMLSchema-instance" xsi:noNamespaceSchemaLocation="http://sumo.dlr.de/xsd/net_file.xsd">

    <location netOffset="0.00,0.00" convBoundary="-319.25,-132.36,61.83,104.82" origBoundary="-10000000000.00,-10000000000.00,10000000000.00,10000000000.00" projParameter="!"/>

    <edge id=":J29_0" function="internal">
        <lane id=":J29_0_0" index="0" disallow="pedestrian" speed="13.89" length="6.20" shape="3.74,26.35 3.86,24.52 3.83,23.26 3.71,22.00 3.55,20.17"/>
    </edge>
    <edge id=":J29_1" function="internal">
        <lane id=":J29_1_0" index="0" disallow="pedestrian" speed="5.27" length="5.08" shape="3.74,26.35 4.05,24.96 4.68,23.95 5.65,23.33 6.95,23.10"/>
    </edge>
    <edge id=":J31_0" function="internal">
        <lane id=":J31_0_0" index="0" disallow="pedestrian" speed="13.89" length="11.16" shape="2.62,7.43 2.01,-3.71"/>
    </edge>
    <edge id=":J31_1" function="internal">
        <lane id=":J31_1_0" index="0" disallow="pedestrian" speed="6.57" length="4.03" shape="7.85,1.76 5.34,1.44 4.04,0.70"/>
    </edge>
    <edge id=":J31_2" function="internal">
        <lane id=":J31_2_0" index="0" disallow="pedestrian" speed="6.57" length="5.08" shape="4.04,0.70 3.53,0.41 2.42,-1.30 2.01,-3.71"/>
    </edge>
    <edge id=":J33_0" function="internal">
        <lane id=":J33_0_0" index="0" disallow="pedestrian" speed="6.54" length="8.91" shape="1.88,-9.41 1.48,-11.79 0.41,-13.49 -1.34,-14.53 -3.76,-14.89"/>
    </edge>
    <edge id=":J33_1" function="internal">
        <lane id=":J33_1_0" index="0" disallow="pedestrian" speed="13.89" length="10.98" shape="1.88,-9.41 1.58,-20.38"/>
    </edge>
    <edge id=":J35_0" function="internal">
        <lane id=":J35_0_0" index="0" disallow="pedestrian" speed="13.89" length="11.17" shape="0.74,-43.68 0.15,-54.83"/>
    </edge>
    <edge id=":J35_1" function="internal">
        <lane id=":J35_1_0" index="0" disallow="pedestrian" speed="6.52" length="9.04" shape="0.74,-43.68 1.00,-46.15 1.98,-47.95 3.68,-49.07 6.11,-49.52"/>
    </edge>
    <edge id=":J37_0" function="internal">
        <lane id=":J37_0_0" index="0" disallow="pedestrian" speed="6.51" length="9.00" shape="-0.41,-64.08 -0.91,-66.49 -2.06,-68.16 -3.87,-69.11 -6.33,-69.33"/>
    </edge>
    <edge id=":J37_1" function="internal">
        <lane id=":J37_1_0" index="0" disallow="pedestrian" speed="13.89" length="11.19" shape="-0.41,-64.08 -0.93,-75.25"/>
    </edge>
    <edge id=":J39_0" function="internal">
        <lane id=":J39_0_0" index="0" disallow="pedestrian" speed="13.89" length="11.16" shape="-1.25,-92.30 -1.43,-103.47"/>
    </edge>
    <edge id=":J39_1" function="internal">
        <lane id=":J39_1_0" index="0" disallow="pedestrian" speed="6.52" length="9.02" shape="-1.25,-92.30 -0.95,-94.75 0.07,-96.51 1.80,-97.60 4.24,-98.01"/>
    </edge>
    <edge id=":J5_0" function="internal">
        <lane id=":J5_0_0" index="0" disallow="pedestrian" speed="13.89" length="11.02" shape="3.09,77.35 2.84,66.33"/>
    </edge>
    <edge id=":J5_1" function="internal">
        <lane id=":J5_1_0" index="0" disallow="pedestrian" speed="6.53" length="8.94" shape="3.09,77.35 3.44,74.92 4.47,73.17 6.18,72.10 8.58,71.70"/>
    </edge>
    <edge id=":J7_0" function="internal">
        <lane id=":J7_0_0" index="0" disallow="pedestrian" speed="6.59" length="8.71" shape="2.32,51.93 1.90,49.66 0.83,48.00 -0.89,46.96 -3.27,46.53"/>
    </edge>
    <edge id=":J7_1" function="internal">
        <lane id=":J7_1_0" index="0" disallow="pedestrian" speed="13.89" length="13.71" shape="2.32,51.93 2.24,48.38 2.27,45.07 2.42,41.77 2.69,38.23"/>
    </edge>
    <edge id=":J7_2" function="internal">
        <lane id=":J7_2_0" index="0" disallow="pedestrian" speed="7.19" length="11.28" shape="2.32,51.93 2.55,48.32 3.52,45.71 5.23,44.11 7.69,43.52"/>
    </edge>
    <edge id=":Node1_0" function="internal">
        <lane id=":Node1_0_0" index="0" disallow="pedestrian" speed="11.12" length="28.45" shape="-309.59,13.67 -317.32,12.59 -322.84,9.30 -326.15,3.79 -327.25,-3.93"/>
        <lane id=":Node1_0_1" index="1" disallow="pedestrian" speed="10.10" length="23.28" shape="-309.60,10.47 -315.92,9.59 -320.44,6.89 -323.15,2.39 -324.05,-3.93"/>
        <lane id=":Node1_0_2" index="2" disallow="pedestrian" speed="8.96" length="18.11" shape="-309.61,7.27 -314.53,6.58 -318.04,4.49 -320.15,0.98 -320.85,-3.93"/>
    </edge>
    <edge id=":Node1_3" function="internal">
        <lane id=":Node1_3_0" index="0" disallow="pedestrian" speed="3.90" length="2.59" shape="-311.25,-3.93 -311.15,-3.23 -310.85,-2.73 -310.35,-2.43 -309.64,-2.33"/>
        <lane id=":Node1_3_1" index="1" disallow="pedestrian" speed="6.08" length="7.76" shape="-314.45,-3.93 -314.15,-1.83 -313.25,-0.32 -311.74,0.57 -309.63,0.87"/>
        <lane id=":Node1_3_2" index="2" disallow="pedestrian" speed="7.66" length="12.93" shape="-317.65,-3.93 -317.15,-0.42 -315.64,2.08 -313.14,3.58 -309.62,4.07"/>
    </edge>
    <edge id=":Node2_0" function="internal">
        <lane id=":Node2_0_0" index="0" disallow="pedestrian" speed="6.54" length="9.13" shape="-229.13,13.49 -231.61,13.84 -233.39,14.89 -234.46,16.65 -234.82,19.12"/>
    </edge>
    <edge id=":Node2_1" function="internal">
        <lane id=":Node2_1_0" index="0" disallow="pedestrian" speed="13.89" length="27.31" shape="-229.13,13.49 -256.41,13.49"/>
        <lane id=":Node2_1_1" index="1" disallow="pedestrian" speed="13.89" length="27.31" shape="-229.12,10.29 -256.42,10.29"/>
        <lane id=":Node2_1_2" index="2" disallow="pedestrian" speed="13.89" length="27.31" shape="-229.11,7.09 -256.43,7.09"/>
    </edge>
    <edge id=":Node2_4" function="internal">
        <lane id=":Node2_4_0" index="0" disallow="pedestrian" speed="10.35" length="4.90" shape="-229.11,7.09 -233.96,6.38"/>
    </edge>
    <edge id=":Node2_20" function="internal">
        <lane id=":Node2_20_0" index="0" disallow="pedestrian" speed="10.35" length="19.71" shape="-233.96,6.38 -235.79,6.12 -240.54,3.23 -243.35,-1.56 -244.22,-8.26"/>
    </edge>
    <edge id=":Node2_5" function="internal">
        <lane id=":Node2_5_0" index="0" disallow="pedestrian" speed="6.49" length="9.03" shape="-234.62,-8.14 -234.30,-5.68 -233.27,-3.92 -231.53,-2.87 -229.08,-2.51"/>
    </edge>
    <edge id=":Node2_6" function="internal">
        <lane id=":Node2_6_0" index="0" disallow="pedestrian" speed="13.89" length="27.29" shape="-234.62,-8.14 -234.82,19.12"/>
        <lane id=":Node2_6_1" index="1" disallow="pedestrian" speed="13.89" length="27.29" shape="-237.82,-8.18 -238.02,19.11"/>
        <lane id=":Node2_6_2" index="2" disallow="pedestrian" speed="13.89" length="27.29" shape="-241.02,-8.22 -241.22,19.10"/>
    </edge>
    <edge id=":Node2_9" function="internal">
        <lane id=":Node2_9_0" index="0" disallow="pedestrian" speed="10.46" length="4.87" shape="-241.02,-8.22 -241.77,-3.41"/>
    </edge>
    <edge id=":Node2_21" function="internal">
        <lane id=":Node2_21_0" index="0" disallow="pedestrian" speed="10.46" length="19.82" shape="-241.77,-3.41 -242.06,-1.54 -244.97,3.24 -249.76,6.12 -256.43,7.09"/>
    </edge>
    <edge id=":Node2_10" function="internal">
        <lane id=":Node2_10_0" index="0" disallow="pedestrian" speed="6.65" length="9.38" shape="-256.47,-2.51 -253.94,-2.88 -252.12,-3.97 -251.01,-5.79 -250.62,-8.33"/>
    </edge>
    <edge id=":Node2_11" function="internal">
        <lane id=":Node2_11_0" index="0" disallow="pedestrian" speed="13.89" length="27.37" shape="-256.47,-2.51 -229.08,-2.51"/>
        <lane id=":Node2_11_1" index="1" disallow="pedestrian" speed="13.89" length="27.37" shape="-256.46,0.69 -229.09,0.69"/>
        <lane id=":Node2_11_2" index="2" disallow="pedestrian" speed="13.89" length="27.37" shape="-256.45,3.89 -229.10,3.89"/>
    </edge>
    <edge id=":Node2_14" function="internal">
        <lane id=":Node2_14_0" index="0" disallow="pedestrian" speed="10.36" length="5.12" shape="-256.45,3.89 -251.37,4.60"/>
    </edge>
    <edge id=":Node2_22" function="internal">
        <lane id=":Node2_22_0" index="0" disallow="pedestrian" speed="10.36" length="19.45" shape="-251.37,4.60 -249.77,4.83 -245.01,7.67 -242.16,12.43 -241.22,19.10"/>
    </edge>
    <edge id=":Node2_15" function="internal">
        <lane id=":Node2_15_0" index="0" disallow="pedestrian" speed="6.50" length="9.03" shape="-250.82,19.08 -251.16,16.63 -252.21,14.88 -253.96,13.84 -256.41,13.49"/>
    </edge>
    <edge id=":Node2_16" function="internal">
        <lane id=":Node2_16_0" index="0" disallow="pedestrian" speed="13.89" length="27.39" shape="-250.82,19.08 -250.62,-8.33"/>
        <lane id=":Node2_16_1" index="1" disallow="pedestrian" speed="13.89" length="27.39" shape="-247.62,19.09 -247.42,-8.29"/>
        <lane id=":Node2_16_2" index="2" disallow="pedestrian" speed="13.89" length="27.39" shape="-244.42,19.10 -244.22,-8.26"/>
    </edge>
    <edge id=":Node2_19" function="internal">
        <lane id=":Node2_19_0" index="0" disallow="pedestrian" speed="10.38" length="5.18" shape="-244.42,19.10 -243.67,13.97"/>
    </edge>
    <edge id=":Node2_23" function="internal">
        <lane id=":Node2_23_0" index="0" disallow="pedestrian" speed="10.38" length="19.44" shape="-243.67,13.97 -243.45,12.43 -240.57,7.67 -235.79,4.82 -229.10,3.89"/>
    </edge>
    <edge id=":Node3_0" function="internal">
        <lane id=":Node3_0_0" index="0" disallow="pedestrian" speed="11.12" length="28.45" shape="-153.40,-3.93 -154.50,3.79 -157.81,9.30 -163.33,12.59 -171.05,13.67"/>
        <lane id=":Node3_0_1" index="1" disallow="pedestrian" speed="10.10" length="23.28" shape="-156.60,-3.93 -157.50,2.39 -160.21,6.89 -164.72,9.59 -171.04,10.47"/>
        <lane id=":Node3_0_2" index="2" disallow="pedestrian" speed="8.96" length="18.10" shape="-159.80,-3.93 -160.50,0.98 -162.61,4.49 -166.12,6.58 -171.03,7.27"/>
    </edge>
    <edge id=":Node3_3" function="internal">
        <lane id=":Node3_3_0" index="0" disallow="pedestrian" speed="3.90" length="2.59" shape="-171.00,-2.33 -170.30,-2.43 -169.80,-2.73 -169.50,-3.23 -169.40,-3.93"/>
        <lane id=":Node3_3_1" index="1" disallow="pedestrian" speed="6.08" length="7.76" shape="-171.01,0.87 -168.91,0.58 -167.40,-0.32 -166.50,-1.82 -166.20,-3.93"/>
        <lane id=":Node3_3_2" index="2" disallow="pedestrian" speed="7.66" length="12.93" shape="-171.02,4.07 -167.51,3.58 -165.01,2.08 -163.50,-0.42 -163.00,-3.93"/>
    </edge>
    <edge id=":Node4_0" function="internal">
        <lane id=":Node4_0_0" index="0" disallow="pedestrian" speed="11.12" length="28.32" shape="-327.25,-45.65 -326.15,-53.33 -322.86,-58.82 -317.38,-62.13 -309.71,-63.25"/>
        <lane id=":Node4_0_1" index="1" disallow="pedestrian" speed="10.10" length="23.17" shape="-324.05,-45.65 -323.15,-51.93 -320.46,-56.43 -315.98,-59.13 -309.70,-60.05"/>
        <lane id=":Node4_0_2" index="2" disallow="pedestrian" speed="8.96" length="18.02" shape="-320.85,-45.65 -320.15,-50.54 -318.06,-54.03 -314.57,-56.14 -309.69,-56.85"/>
    </edge>
    <edge id=":Node4_3" function="internal">
        <lane id=":Node4_3_0" index="0" disallow="pedestrian" speed="3.90" length="2.57" shape="-309.66,-47.25 -310.35,-47.15 -310.85,-46.85 -311.15,-46.35 -311.25,-45.65"/>
        <lane id=":Node4_3_1" index="1" disallow="pedestrian" speed="6.08" length="7.72" shape="-309.67,-50.45 -311.76,-50.15 -313.25,-49.24 -314.15,-47.75 -314.45,-45.65"/>
        <lane id=":Node4_3_2" index="2" disallow="pedestrian" speed="7.66" length="12.87" shape="-309.68,-53.65 -313.16,-53.14 -315.66,-51.64 -317.15,-49.14 -317.65,-45.65"/>
    </edge>
    <edge id=":Node5_0" function="internal">
        <lane id=":Node5_0_0" index="0" disallow="pedestrian" speed="6.62" length="9.27" shape="-228.57,-47.51 -231.01,-47.14 -232.77,-46.03 -233.84,-44.19 -234.22,-41.63"/>
    </edge>
    <edge id=":Node5_1" function="internal">
        <lane id=":Node5_1_0" index="0" disallow="pedestrian" speed="13.89" length="27.20" shape="-228.57,-47.51 -255.77,-47.43"/>
        <lane id=":Node5_1_1" index="1" disallow="pedestrian" speed="13.89" length="27.20" shape="-228.58,-50.71 -255.78,-50.63"/>
        <lane id=":Node5_1_2" index="2" disallow="pedestrian" speed="13.89" length="27.20" shape="-228.59,-53.91 -255.79,-53.83"/>
    </edge>
    <edge id=":Node5_4" function="internal">
        <lane id=":Node5_4_0" index="0" disallow="pedestrian" speed="13.89" length="27.21" shape="-255.82,-63.43 -228.62,-63.51"/>
        <lane id=":Node5_4_1" index="1" disallow="pedestrian" speed="13.89" length="27.21" shape="-255.81,-60.23 -228.61,-60.31"/>
        <lane id=":Node5_4_2" index="2" disallow="pedestrian" speed="13.89" length="27.21" shape="-255.80,-57.03 -228.60,-57.11"/>
    </edge>
    <edge id=":Node5_7" function="internal">
        <lane id=":Node5_7_0" index="0" disallow="pedestrian" speed="10.86" length="5.99" shape="-255.80,-57.03 -249.85,-56.34"/>
        <lane id=":Node5_7_1" index="1" disallow="pedestrian" speed="10.34" length="5.01" shape="-255.80,-57.03 -250.84,-56.33"/>
    </edge>
    <edge id=":Node5_12" function="internal">
        <lane id=":Node5_12_0" index="0" disallow="pedestrian" speed="10.86" length="21.35" shape="-249.85,-56.34 -247.69,-56.09 -241.92,-53.22 -238.50,-48.41 -237.42,-41.66"/>
    </edge>
    <edge id=":Node5_13" function="internal">
        <lane id=":Node5_13_0" index="0" disallow="pedestrian" speed="10.34" length="19.68" shape="-250.84,-56.33 -249.09,-56.09 -244.32,-53.22 -241.50,-48.43 -240.62,-41.70"/>
    </edge>
    <edge id=":Node5_9" function="internal">
        <lane id=":Node5_9_0" index="0" disallow="pedestrian" speed="6.47" length="9.03" shape="-250.22,-41.82 -250.54,-44.28 -251.57,-46.03 -253.32,-47.08 -255.77,-47.43"/>
    </edge>
    <edge id=":Node5_10" function="internal">
        <lane id=":Node5_10_0" index="0" disallow="pedestrian" speed="11.43" length="29.69" shape="-247.02,-41.78 -245.78,-49.87 -242.30,-55.65 -236.58,-59.13 -228.61,-60.31"/>
        <lane id=":Node5_10_1" index="1" disallow="pedestrian" speed="10.44" length="24.58" shape="-243.82,-41.74 -242.80,-48.45 -239.92,-53.25 -235.19,-56.13 -228.60,-57.11"/>
    </edge>
    <edge id=":Node6_0" function="internal">
        <lane id=":Node6_0_0" index="0" disallow="pedestrian" speed="3.90" length="2.59" shape="-169.40,-46.08 -169.50,-46.78 -169.80,-47.28 -170.30,-47.58 -171.00,-47.68"/>
        <lane id=":Node6_0_1" index="1" disallow="pedestrian" speed="6.08" length="7.76" shape="-166.20,-46.08 -166.50,-48.19 -167.40,-49.69 -168.91,-50.59 -171.01,-50.88"/>
        <lane id=":Node6_0_2" index="2" disallow="pedestrian" speed="7.66" length="12.93" shape="-163.00,-46.08 -163.50,-49.59 -165.01,-52.09 -167.51,-53.59 -171.02,-54.08"/>
    </edge>
    <edge id=":Node6_3" function="internal">
        <lane id=":Node6_3_0" index="0" disallow="pedestrian" speed="11.12" length="28.45" shape="-171.05,-63.68 -163.33,-62.60 -157.81,-59.31 -154.50,-53.80 -153.40,-46.08"/>
        <lane id=":Node6_3_1" index="1" disallow="pedestrian" speed="10.10" length="23.27" shape="-171.04,-60.48 -164.72,-59.60 -160.21,-56.90 -157.50,-52.40 -156.60,-46.08"/>
        <lane id=":Node6_3_2" index="2" disallow="pedestrian" speed="8.96" length="18.10" shape="-171.03,-57.28 -166.12,-56.59 -162.61,-54.50 -160.50,-50.99 -159.80,-46.08"/>
    </edge>

    <edge id="-E35" from="Node4" to="Node1" priority="-1">
        <lane id="-E35_0" index="0" disallow="pedestrian" speed="13.89" length="41.72" shape="-311.25,-45.65 -311.25,-3.93"/>
        <lane id="-E35_1" index="1" disallow="pedestrian" speed="13.89" length="41.72" shape="-314.45,-45.65 -314.45,-3.93"/>
        <lane id="-E35_2" index="2" disallow="pedestrian" speed="13.89" length="41.72" shape="-317.65,-45.65 -317.65,-3.93"/>
    </edge>
    <edge id="-E38" from="Node6" to="Node3" priority="-1">
        <lane id="-E38_0" index="0" disallow="pedestrian" speed="13.89" length="42.15" shape="-153.40,-46.08 -153.40,-3.93"/>
        <lane id="-E38_1" index="1" disallow="pedestrian" speed="13.89" length="42.15" shape="-156.60,-46.08 -156.60,-3.93"/>
        <lane id="-E38_2" index="2" disallow="pedestrian" speed="13.89" length="42.15" shape="-159.80,-46.08 -159.80,-3.93"/>
    </edge>
    <edge id="-E39" from="Node5" to="Node6" priority="-1">
        <lane id="-E39_0" index="0" disallow="pedestrian" speed="13.89" length="57.57" shape="-228.62,-63.51 -171.05,-63.68"/>
        <lane id="-E39_1" index="1" disallow="pedestrian" speed="13.89" length="57.57" shape="-228.61,-60.31 -171.04,-60.48"/>
        <lane id="-E39_2" index="2" disallow="pedestrian" speed="13.89" length="57.57" shape="-228.60,-57.11 -171.03,-57.28"/>
    </edge>
    <edge id="E15" from="J5" to="J7" priority="-1">
        <lane id="E15_0" index="0" disallow="pedestrian" speed="13.89" length="14.41" shape="2.84,66.33 2.32,51.93"/>
    </edge>
    <edge id="E16" from="J7" to="J8" priority="-1">
        <lane id="E16_0" index="0" disallow="pedestrian" speed="13.89" length="49.05" shape="7.69,43.52 56.72,41.92"/>
    </edge>
    <edge id="E17" from="J7" to="J11" priority="-1">
        <lane id="E17_0" index="0" disallow="pedestrian" speed="13.89" length="29.99" shape="-3.27,46.53 -33.23,45.12"/>
    </edge>
    <edge id="E18" from="J7" to="J29" priority="-1">
        <lane id="E18_0" index="0" disallow="pedestrian" speed="13.89" length="11.93" shape="2.69,38.23 3.74,26.35"/>
    </edge>
    <edge id="E19" from="J29" to="J30" priority="-1">
        <lane id="E19_0" index="0" disallow="pedestrian" speed="13.89" length="51.97" shape="6.95,23.10 58.90,21.70"/>
    </edge>
    <edge id="E20" from="J29" to="J31" priority="-1">
        <lane id="E20_0" index="0" disallow="pedestrian" speed="13.89" length="12.77" shape="3.55,20.17 2.62,7.43"/>
    </edge>
    <edge id="E21" from="J32" to="J31" priority="-1">
        <lane id="E21_0" index="0" disallow="pedestrian" speed="13.89" length="53.99" shape="61.84,1.43 7.85,1.76"/>
    </edge>
    <edge id="E22" from="J31" to="J33" priority="-1">
        <lane id="E22_0" index="0" disallow="pedestrian" speed="13.89" length="5.70" shape="2.01,-3.71 1.88,-9.41"/>
    </edge>
    <edge id="E23" from="J33" to="J34" priority="-1">
        <lane id="E23_0" index="0" disallow="pedestrian" speed="13.89" length="29.76" shape="-3.76,-14.89 -33.53,-15.19"/>
    </edge>
    <edge id="E24" from="J33" to="J35" priority="-1">
        <lane id="E24_0" index="0" disallow="pedestrian" speed="13.89" length="23.31" shape="1.58,-20.38 0.74,-43.68"/>
    </edge>
    <edge id="E25" from="J35" to="J36" priority="-1">
        <lane id="E25_0" index="0" disallow="pedestrian" speed="13.89" length="55.66" shape="6.11,-49.52 61.73,-51.77"/>
    </edge>
    <edge id="E26" from="J35" to="J37" priority="-1">
        <lane id="E26_0" index="0" disallow="pedestrian" speed="13.89" length="9.26" shape="0.15,-54.83 -0.41,-64.08"/>
    </edge>
    <edge id="E27" from="J37" to="J38" priority="-1">
        <lane id="E27_0" index="0" disallow="pedestrian" speed="13.89" length="28.45" shape="-6.33,-69.33 -34.73,-67.79"/>
    </edge>
    <edge id="E28" from="J37" to="J39" priority="-1">
        <lane id="E28_0" index="0" disallow="pedestrian" speed="13.89" length="17.06" shape="-0.93,-75.25 -1.25,-92.30"/>
    </edge>
    <edge id="E29" from="J39" to="J40" priority="-1">
        <lane id="E29_0" index="0" disallow="pedestrian" speed="13.89" length="53.67" shape="4.24,-98.01 57.90,-99.35"/>
    </edge>
    <edge id="E3" from="J4" to="J5" priority="-1">
        <lane id="E3_0" index="0" disallow="pedestrian" speed="13.89" length="27.47" shape="3.02,104.82 3.09,77.35"/>
    </edge>
    <edge id="E30" from="J39" to="J41" priority="-1">
        <lane id="E30_0" index="0" disallow="pedestrian" speed="13.89" length="28.88" shape="-1.43,-103.47 -1.81,-132.34"/>
    </edge>
    <edge id="E35" from="Node1" to="Node4" priority="-1">
        <lane id="E35_0" index="0" disallow="pedestrian" speed="13.89" length="41.72" shape="-327.25,-3.93 -327.25,-45.65"/>
        <lane id="E35_1" index="1" disallow="pedestrian" speed="13.89" length="41.72" shape="-324.05,-3.93 -324.05,-45.65"/>
        <lane id="E35_2" index="2" disallow="pedestrian" speed="13.89" length="41.72" shape="-320.85,-3.93 -320.85,-45.65"/>
    </edge>
    <edge id="E38" from="Node3" to="Node6" priority="-1">
        <lane id="E38_0" index="0" disallow="pedestrian" speed="13.89" length="42.15" shape="-169.40,-3.93 -169.40,-46.08"/>
        <lane id="E38_1" index="1" disallow="pedestrian" speed="13.89" length="42.15" shape="-166.20,-3.93 -166.20,-46.08"/>
        <lane id="E38_2" index="2" disallow="pedestrian" speed="13.89" length="42.15" shape="-163.00,-3.93 -163.00,-46.08"/>
    </edge>
    <edge id="E39" from="Node6" to="Node5" priority="-1">
        <lane id="E39_0" index="0" disallow="pedestrian" speed="13.89" length="57.57" shape="-171.00,-47.68 -228.57,-47.51"/>
        <lane id="E39_1" index="1" disallow="pedestrian" speed="13.89" length="57.57" shape="-171.01,-50.88 -228.58,-50.71"/>
        <lane id="E39_2" index="2" disallow="pedestrian" speed="13.89" length="57.57" shape="-171.02,-54.08 -228.59,-53.91"/>
    </edge>
    <edge id="E4" from="J5" to="J6" priority="-1">
        <lane id="E4_0" index="0" disallow="pedestrian" speed="13.89" length="48.08" shape="8.58,71.70 56.65,70.76"/>
    </edge>
    <edge id="Node1_2_EB" from="Node1" to="Node2" priority="-1">
        <lane id="Node1_2_EB_0" index="0" disallow="pedestrian" speed="13.89" length="53.18" shape="-309.64,-2.33 -256.47,-2.51"/>
        <lane id="Node1_2_EB_1" index="1" disallow="pedestrian" speed="13.89" length="53.18" shape="-309.63,0.87 -256.46,0.69"/>
        <lane id="Node1_2_EB_2" index="2" disallow="pedestrian" speed="13.89" length="53.18" shape="-309.62,4.07 -256.45,3.89"/>
    </edge>
    <edge id="Node1_2_WB" from="Node2" to="Node1" priority="-1">
        <lane id="Node1_2_WB_0" index="0" disallow="pedestrian" speed="13.89" length="53.18" shape="-256.41,13.49 -309.59,13.67"/>
        <lane id="Node1_2_WB_1" index="1" disallow="pedestrian" speed="13.89" length="53.18" shape="-256.42,10.29 -309.60,10.47"/>
        <lane id="Node1_2_WB_2" index="2" disallow="pedestrian" speed="13.89" length="53.18" shape="-256.43,7.09 -309.61,7.27"/>
    </edge>
    <edge id="Node2_3_EB" from="Node2" to="Node3" priority="-1">
        <lane id="Node2_3_EB_0" index="0" disallow="pedestrian" speed="13.89" length="58.07" shape="-229.08,-2.51 -171.00,-2.33"/>
        <lane id="Node2_3_EB_1" index="1" disallow="pedestrian" speed="13.89" length="58.07" shape="-229.09,0.69 -171.01,0.87"/>
        <lane id="Node2_3_EB_2" index="2" disallow="pedestrian" speed="13.89" length="58.07" shape="-229.10,3.89 -171.02,4.07"/>
    </edge>
    <edge id="Node2_3_WB" from="Node3" to="Node2" priority="-1">
        <lane id="Node2_3_WB_0" index="0" disallow="pedestrian" speed="13.89" length="58.07" shape="-171.05,13.67 -229.13,13.49"/>
        <lane id="Node2_3_WB_1" index="1" disallow="pedestrian" speed="13.89" length="58.07" shape="-171.04,10.47 -229.12,10.29"/>
        <lane id="Node2_3_WB_2" index="2" disallow="pedestrian" speed="13.89" length="58.07" shape="-171.03,7.27 -229.11,7.09"/>
    </edge>
    <edge id="Node2_5_NB" from="Node5" to="Node2" priority="-1">
        <lane id="Node2_5_NB_0" index="0" disallow="pedestrian" speed="13.89" length="33.49" shape="-234.22,-41.63 -234.62,-8.14"/>
        <lane id="Node2_5_NB_1" index="1" disallow="pedestrian" speed="13.89" length="33.49" shape="-237.42,-41.66 -237.82,-8.18"/>
        <lane id="Node2_5_NB_2" index="2" disallow="pedestrian" speed="13.89" length="33.49" shape="-240.62,-41.70 -241.02,-8.22"/>
    </edge>
    <edge id="Node2_5_SB" from="Node2" to="Node5" priority="-1">
        <lane id="Node2_5_SB_0" index="0" disallow="pedestrian" speed="13.89" length="33.49" shape="-250.62,-8.33 -250.22,-41.82"/>
        <lane id="Node2_5_SB_1" index="1" disallow="pedestrian" speed="13.89" length="33.49" shape="-247.42,-8.29 -247.02,-41.78"/>
        <lane id="Node2_5_SB_2" index="2" disallow="pedestrian" speed="13.89" length="33.49" shape="-244.22,-8.26 -243.82,-41.74"/>
    </edge>
    <edge id="Node2_7_NB" from="Node2" to="Node7" priority="-1">
        <lane id="Node2_7_NB_0" index="0" disallow="pedestrian" speed="13.89" length="27.28" shape="-234.82,19.12 -234.87,46.40"/>
        <lane id="Node2_7_NB_1" index="1" disallow="pedestrian" speed="13.89" length="27.28" shape="-238.02,19.11 -238.07,46.39"/>
        <lane id="Node2_7_NB_2" index="2" disallow="pedestrian" speed="13.89" length="27.28" shape="-241.22,19.10 -241.27,46.38"/>
    </edge>
    <edge id="Node2_7_SB" from="Node7" to="Node2" priority="-1">
        <lane id="Node2_7_SB_0" index="0" disallow="pedestrian" speed="13.89" length="27.28" shape="-250.87,46.36 -250.82,19.08"/>
        <lane id="Node2_7_SB_1" index="1" disallow="pedestrian" speed="13.89" length="27.28" shape="-247.67,46.37 -247.62,19.09"/>
        <lane id="Node2_7_SB_2" index="2" disallow="pedestrian" speed="13.89" length="27.28" shape="-244.47,46.38 -244.42,19.10"/>
    </edge>
    <edge id="Node4_5_EB" from="Node4" to="Node5" priority="-1">
        <lane id="Node4_5_EB_0" index="0" disallow="pedestrian" speed="13.89" length="53.88" shape="-309.71,-63.25 -255.82,-63.43"/>
        <lane id="Node4_5_EB_1" index="1" disallow="pedestrian" speed="13.89" length="53.88" shape="-309.70,-60.05 -255.81,-60.23"/>
        <lane id="Node4_5_EB_2" index="2" disallow="pedestrian" speed="13.89" length="53.88" shape="-309.69,-56.85 -255.80,-57.03"/>
    </edge>
    <edge id="Node4_5_WB" from="Node5" to="Node4" priority="-1">
        <lane id="Node4_5_WB_0" index="0" disallow="pedestrian" speed="13.89" length="53.88" shape="-255.77,-47.43 -309.66,-47.25"/>
        <lane id="Node4_5_WB_1" index="1" disallow="pedestrian" speed="13.89" length="53.88" shape="-255.78,-50.63 -309.67,-50.45"/>
        <lane id="Node4_5_WB_2" index="2" disallow="pedestrian" speed="13.89" length="53.88" shape="-255.79,-53.83 -309.68,-53.65"/>
    </edge>

    <tlLogic id="Node2" type="static" programID="0" offset="0">
        <phase duration="42" state="GGGGgrrrrrGGGGgrrrrr"/>
        <phase duration="3"  state="yyyyyrrrrryyyyyrrrrr"/>
        <phase duration="42" state="rrrrrGGGGgrrrrrGGGGg"/>
        <phase duration="3"  state="rrrrryyyyyrrrrryyyyy"/>
    </tlLogic>
    <tlLogic id="Node5" type="static" programID="0" offset="0">
        <phase duration="42" state="GGGGGGGggrrr"/>
        <phase duration="3"  state="Gyyyyyyyyrrr"/>
        <phase duration="42" state="GrrrrrrrrGGG"/>
        <phase duration="3"  state="Grrrrrrrryyy"/>
    </tlLogic>

    <junction id="J11" type="dead_end" x="-33.15" y="43.52" incLanes="E17_0" intLanes="" shape="-33.30,46.72 -33.15,43.52"/>
    <junction id="J29" type="priority" x="5.49" y="24.74" incLanes="E18_0" intLanes=":J29_0_0 :J29_1_0" shape="6.99,24.70 6.90,21.50 5.98,21.36 5.64,21.16 5.39,20.88 5.23,20.51 5.15,20.05 1.95,20.28 2.23,23.25 2.26,24.02 2.24,24.95 2.15,26.21 5.34,26.49 5.59,25.51 5.83,25.17 6.14,24.92 6.53,24.76">
        <request index="0" response="00" foes="00" cont="0"/>
        <request index="1" response="00" foes="00" cont="0"/>
    </junction>
    <junction id="J30" type="dead_end" x="58.94" y="23.30" incLanes="E19_0" intLanes="" shape="58.85,20.10 58.94,23.30"/>
    <junction id="J31" type="priority" x="3.69" y="0.19" incLanes="E20_0 E21_0" intLanes=":J31_0_0 :J31_2_0" shape="1.02,7.55 4.21,7.32 4.49,5.13 4.98,4.36 5.71,3.81 6.67,3.48 7.86,3.36 7.84,0.16 5.53,-0.26 4.71,-0.80 4.11,-1.56 3.75,-2.55 3.60,-3.75 0.41,-3.68">
        <request index="0" response="00" foes="10" cont="0"/>
        <request index="1" response="01" foes="01" cont="1"/>
    </junction>
    <junction id="J32" type="dead_end" x="61.83" y="-0.17" incLanes="" intLanes="" shape="61.83,-0.17 61.85,3.03"/>
    <junction id="J33" type="priority" x="3.33" y="-16.42" incLanes="E22_0" intLanes=":J33_0_0 :J33_1_0" shape="0.28,-9.38 3.48,-9.45 3.18,-20.44 -0.01,-20.32 -0.37,-18.18 -0.88,-17.43 -1.61,-16.90 -2.57,-16.59 -3.75,-16.49 -3.78,-13.29 -1.56,-12.84 -0.78,-12.29 -0.21,-11.53 0.15,-10.56">
        <request index="0" response="00" foes="00" cont="0"/>
        <request index="1" response="00" foes="00" cont="0"/>
    </junction>
    <junction id="J34" type="dead_end" x="-33.51" y="-16.79" incLanes="E23_0" intLanes="" shape="-33.54,-13.59 -33.51,-16.79"/>