<?xml version="1.0" encoding="UTF-8"?>

<!-- generated on 2025-07-07 11:32:23 by Eclipse SUMO netedit Version 1.21.0
-->

<additional xmlns:xsi="http://www.w3.org/2001/XMLSchema-instance" xsi:noNamespaceSchemaLocation="http://sumo.dlr.de/xsd/additional_file.xsd">
    <!-- StoppingPlaces -->
    <busStop id="bs_0" name="Case Center" lane="E2_0" startPos="25.25" endPos="35.25" lines="452, 450"/>

    <!-- Define bus -->
    <vType id="Bus" vClass="bus" sigma="0.5" length="12.0" maxSpeed="50.0" guiShape="bus"/>

    <!-- Define bus trips -->
    <trip id="bus_trip_1" type="Bus" depart="50" from="E1" to="E2" departLane="free" color="yellow" departPos="0">
        <stop busStop="bs_0" duration="10"/>
    </trip>

    <!-- Define bus flow -->
    <flow id="bus_flow_1" begin="0" end="1000" number="20" from="E0" to="E2" type="Bus" color="red" departLane="free">
        <stop busStop="bs_0" duration="15"/>
    </flow>
</additional>
