<?xml version="1.0" encoding="UTF-8"?>

<!-- generated on 2025-07-06 19:49:40 by Eclipse SUMO netedit Version 1.21.0
<neteditConfiguration xmlns:xsi="http://www.w3.org/2001/XMLSchema-instance" xsi:noNamespaceSchemaLocation="http://sumo.dlr.de/xsd/neteditConfiguration.xsd">

    <input>
        <sumo-net-file value="C:\Users\iamth\OneDrive\Desktop\Research\SUMO\Saratoga\network\network.net.xml"/>
    </input>

    <output>
        <tls-file value="C:\Users\iamth\OneDrive\Desktop\Research\SUMO\Saratoga\additional\signal_timing.tll.xml"/>
    </output>

    <processing>
        <geometry.min-radius.fix.railways value="false"/>
        <geometry.max-grade.fix value="false"/>
        <offset.disable-normalization value="true"/>
        <lefthand value="0"/>
    </processing>

    <junctions>
        <no-internal-links value="true"/>
        <no-turnarounds value="true"/>
        <junctions.corner-detail value="5"/>
        <junctions.limit-turn-speed value="5.50"/>
        <rectangular-lane-cut value="0"/>
    </junctions>

    <pedestrian>
        <walkingareas value="0"/>
    </pedestrian>

</neteditConfiguration>
-->

<additional xmlns:xsi="http://www.w3.org/2001/XMLSchema-instance" xsi:noNamespaceSchemaLocation="http://sumo.dlr.de/xsd/additional_file.xsd">
    <tlLogic id="J1" type="static" programID="0" offset="0">
        <phase duration="10" state="GGrr"/>
        <phase duration="3"  state="yyrr"/>
        <phase duration="74" state="rrGG"/>
        <phase duration="3"  state="rryy"/>
    </tlLogic>
</additional>